* OPAMP MACRO MODEL, SINGLE-POLE 
* connections:      non-inverting input
*                   |   inverting input
*                   |   |        output
*                   |   |        |
.SUBCKT uA741       1   2  7  8  6
*7 8 are dummy pins ideally to be connected to supply
* INPUT IMPEDANCE
RIN	1	2	10MEG
* DC GAIN (100K)
EGAIN	3 0	1 2	100K
RP1	3	4	1K
CP1	4	0	15.915UF
* OUTPUT BUFFER AND RESISTANCE
EBUFFER	5 0	4 0	1
ROUT	5	6	10
.ENDS
